    3

 H    0.0000000000    0.0000000000    0.0000000000
 H    0.7563126110    0.0000000000    0.0000000000
 H    3.0000000000    0.0000000000    0.0000000000
    3

 H    0.0000000000    0.0000000000    0.0000000000
 H    1.0762126573    0.0000000000    0.0000000000
 H    3.0000000000    0.0000000000    0.0000000000
    3

 H    0.0000000000    0.0000000000    0.0000000000
 H    1.3053892046    0.0000000000    0.0000000000
 H    3.0000000000    0.0000000000    0.0000000000
    3

 H    0.0000000000    0.0000000000    0.0000000000
 H    1.5000000000    0.0000000000    0.0000000000
 H    3.0000000000    0.0000000000    0.0000000000
    3

 H    0.0000000000    0.0000000000    0.0000000000
 H    1.6946107464    0.0000000000    0.0000000000
 H    3.0000000000    0.0000000000    0.0000000000
    3

 H    0.0000000000    0.0000000000    0.0000000000
 H    1.9237880074    0.0000000000    0.0000000000
 H    3.0000000000    0.0000000000    0.0000000000
    3

 H    0.0000000000    0.0000000000    0.0000000000
 H    2.2436873890    0.0000000000    0.0000000000
 H    3.0000000000    0.0000000000    0.0000000000
